EPRI_Ckt7_DER_Project/electricdss-code-r4133-trunk-Distrib-EPRITestCircuits-ckt7/ckt7_EXP_POWERS.csv
Element, Terminal, P(kW), Q(kvar),  P_Normal, Q_Normal, P_Emergency, Q_Emergency
"Transformer.SUB1"      ,   1,     25494.6,      8035.5,         0.0,         0.0,         0.0,         0.0
"Transformer.SUB1"      ,   2,    -25493.4,     -7919.7
"Transformer.SUB2"      ,   1,     25494.6,      8035.5,         0.0,         0.0,         0.0,         0.0
"Transformer.SUB2"      ,   2,    -25493.4,     -7919.7
"Transformer.SUB3"      ,   1,     25494.6,      8035.5,         0.0,         0.0,         0.0,         0.0
"Transformer.SUB3"      ,   2,    -25493.4,     -7919.7
"Line.326"              ,   1,         0.0,         0.0,         0.0,         0.0,         0.0,         0.0
"Line.326"              ,   2,        -0.0,        -0.0
"Line.333"              ,   1,      5473.4,       420.1,         0.0,         0.0,         0.0,         0.0
"Line.333"              ,   2,     -5473.4,      -420.1
"Line.335"              ,   1,         0.0,         0.0,         0.0,         0.0,         0.0,         0.0
"Line.335"              ,   2,        -0.0,        -0.0
"Line.150394"           ,   1,       -48.3,       -23.0,         0.0,         0.0,         0.0,         0.0
"Line.150394"           ,   2,        48.3,        23.0
"Line.157109"           ,   1,      5396.0,       373.8,         0.0,         0.0,         0.0,         0.0
"Line.157109"           ,   2,     -5391.4,      -356.9
"Line.157115"           ,   1,      5375.8,       344.4,         0.0,         0.0,         0.0,         0.0
"Line.157115"           ,   2,     -5369.3,      -320.4
"Line.157116"           ,   1,         0.1,         0.3,         0.0,         0.0,         0.0,         0.0
"Line.157116"           ,   2,        -0.1,        -0.3
"Line.157118"           ,   1,       401.7,       190.6,         0.0,         0.0,         0.0,         0.0
"Line.157118"           ,   2,      -401.7,      -190.6
"Line.157119"           ,   1,      5360.5,       314.3,         0.0,         0.0,         0.0,         0.0
"Line.157119"           ,   2,     -5358.7,      -308.0
"Line.157120"           ,   1,       377.3,       179.1,         0.0,         0.0,         0.0,         0.0
"Line.157120"           ,   2,      -377.3,      -179.1
"Line.157121"           ,   1,       -96.3,       -45.3,         0.0,         0.0,         0.0,         0.0
"Line.157121"           ,   2,        96.3,        45.3
"Line.157122"           ,   1,       256.5,       122.2,         0.0,         0.0,         0.0,         0.0
"Line.157122"           ,   2,      -256.5,      -122.2
"Line.157123"           ,   1,        96.3,        45.3,         0.0,         0.0,         0.0,         0.0
"Line.157123"           ,   2,       -96.3,       -45.3
"Line.157124"           ,   1,      -305.5,      -144.8,         0.0,         0.0,         0.0,         0.0
"Line.157124"           ,   2,       305.5,       144.8
"Line.157126"           ,   1,       305.5,       144.8,         0.0,         0.0,         0.0,         0.0
"Line.157126"           ,   2,      -305.5,      -144.8
"Line.157127"           ,   1,       257.3,       122.0,         0.0,         0.0,         0.0,         0.0
"Line.157127"           ,   2,      -257.2,      -122.0
"Line.157128"           ,   1,       257.0,       120.6,         0.0,         0.0,         0.0,         0.0
"Line.157128"           ,   2,      -256.9,      -120.5
"Line.157129"           ,   1,       160.7,        74.9,         0.0,         0.0,         0.0,         0.0
"Line.157129"           ,   2,      -160.7,       -74.9
"Line.157130"           ,   1,       -96.2,       -45.7,         0.0,         0.0,         0.0,         0.0
"Line.157130"           ,   2,        96.2,        45.7
"Line.157131"           ,   1,         0.3,         1.4,         0.0,         0.0,         0.0,         0.0
"Line.157131"           ,   2,        -0.3,        -1.4
"Line.157132"           ,   1,      4626.9,       -38.9,      1478.2,        12.4,       887.8,         7.5
"Line.157132"           ,   2,     -4618.8,        42.9
"Line.157133"           ,   1,      4611.1,       -46.5,         0.0,         0.0,         0.0,         0.0
"Line.157133"           ,   2,     -4610.7,        48.1
"Line.157136"           ,   1,       241.2,       110.4,         0.0,         0.0,         0.0,         0.0
"Line.157136"           ,   2,      -241.2,      -110.4
"Line.157137"           ,   1,      -241.2,      -110.4,         0.0,         0.0,         0.0,         0.0
"Line.157137"           ,   2,       241.2,       110.4
"Line.157138"           ,   1,      -241.2,      -110.4,         0.0,         0.0,         0.0,         0.0
"Line.157138"           ,   2,       241.2,       110.4
"Line.157142"           ,   1,      4610.6,       -48.2,         0.0,         0.0,         0.0,         0.0
"Line.157142"           ,   2,     -4610.2,        49.8
"Line.157143"           ,   1,      4293.1,      -196.0,         0.0,         0.0,         0.0,         0.0
"Line.157143"           ,   2,     -4292.5,       198.1
"Line.157144"           ,   1,      4195.9,      -245.3,         0.0,         0.0,         0.0,         0.0
"Line.157144"           ,   2,     -4195.5,       246.7
"Line.157145"           ,   1,      4292.4,      -198.4,         0.0,         0.0,         0.0,         0.0
"Line.157145"           ,   2,     -4292.0,       199.8
"Line.157147"           ,   1,       -48.1,       -22.8,         0.0,         0.0,         0.0,         0.0
"Line.157147"           ,   2,        48.1,        22.8
"Line.157148"           ,   1,       -96.2,       -45.5,         0.0,         0.0,         0.0,         0.0
"Line.157148"           ,   2,        96.2,        45.5
"Line.157149"           ,   1,       -96.2,       -45.5,         0.0,         0.0,         0.0,         0.0
"Line.157149"           ,   2,        96.2,        45.5
"Line.157150"           ,   1,        16.3,         7.7,         0.0,         0.0,         0.0,         0.0
"Line.157150"           ,   2,       -16.3,        -7.7
"Line.157151"           ,   1,        11.4,         5.3,         0.0,         0.0,         0.0,         0.0
"Line.157151"           ,   2,       -11.4,        -5.3
"Line.157152"           ,   1,      4179.2,      -254.4,         0.0,         0.0,         0.0,         0.0
"Line.157152"           ,   2,     -4178.6,       256.5
"Line.157153"           ,   1,       -76.6,       -35.9,         0.0,         0.0,         0.0,         0.0
"Line.157153"           ,   2,        76.6,        35.9
"Line.157155"           ,   1,        76.6,        35.9,         0.0,         0.0,         0.0,         0.0
"Line.157155"           ,   2,       -76.6,       -35.9
"Line.157156"           ,   1,        46.0,        21.4,         0.0,         0.0,         0.0,         0.0
"Line.157156"           ,   2,       -46.0,       -21.4
"Line.157157"           ,   1,        30.6,        14.3,         0.0,         0.0,         0.0,         0.0
"Line.157157"           ,   2,       -30.6,       -14.3
"Line.157158"           ,   1,        15.3,         7.1,         0.0,         0.0,         0.0,         0.0
"Line.157158"           ,   2,       -15.3,        -7.1
"Line.157159"           ,   1,        15.3,         7.1,         0.0,         0.0,         0.0,         0.0
"Line.157159"           ,   2,       -15.3,        -7.1
"Line.157160"           ,   1,      4102.0,      -292.4,         0.0,         0.0,         0.0,         0.0
"Line.157160"           ,   2,     -4101.4,       294.7
"Line.157163"           ,   1,        48.1,        22.6,         0.0,         0.0,         0.0,         0.0
"Line.157163"           ,   2,       -48.1,       -22.6
"Line.157165"           ,   1,        48.1,        22.6,         0.0,         0.0,         0.0,         0.0
"Line.157165"           ,   2,       -48.1,       -22.6
"Line.157167"           ,   1,        48.1,        22.6,         0.0,         0.0,         0.0,         0.0
"Line.157167"           ,   2,       -48.1,       -22.6
"Line.157168"           ,   1,      3891.6,      -396.1,       823.9,        83.9,       248.7,        25.3
"Line.157168"           ,   2,     -3858.6,       412.6
"Line.174945"           ,   1,         0.0,        -0.0,         0.0,         0.0,         0.0,         0.0
"Line.174945"           ,   2,        -0.0,        -0.0
"Line.174947"           ,   1,        95.4,        43.9,         0.0,         0.0,         0.0,         0.0
"Line.174947"           ,   2,       -95.4,       -43.9
"Line.174948"           ,   1,       335.7,       155.2,         0.0,         0.0,         0.0,         0.0
"Line.174948"           ,   2,      -335.7,      -155.2
"Line.174950"           ,   1,       539.1,       249.9,         0.0,         0.0,         0.0,         0.0
"Line.174950"           ,   2,      -539.0,      -249.9
"Line.174951"           ,   1,        95.4,        43.9,         0.0,         0.0,         0.0,         0.0
"Line.174951"           ,   2,       -95.4,       -43.9
"Line.174952"           ,   1,       443.6,       206.0,         0.0,         0.0,         0.0,         0.0
"Line.174952"           ,   2,      -443.5,      -205.9
"Line.174953"           ,   1,       443.5,       205.9,         0.0,         0.0,         0.0,         0.0
"Line.174953"           ,   2,      -443.5,      -205.9
"Line.174954"           ,   1,       431.5,       200.4,         0.0,         0.0,         0.0,         0.0
"Line.174954"           ,   2,      -431.5,      -200.4
"Line.174955"           ,   1,       335.8,       155.2,         0.0,         0.0,         0.0,         0.0
"Line.174955"           ,   2,      -335.7,      -155.2
"Line.174956"           ,   1,        95.4,        43.9,         0.0,         0.0,         0.0,         0.0
"Line.174956"           ,   2,       -95.4,       -43.9
"Line.174957"           ,   1,        95.7,        45.2,         0.0,         0.0,         0.0,         0.0
"Line.174957"           ,   2,       -95.7,       -45.2
"Line.174958"           ,   1,         0.3,         1.4,         0.0,         0.0,         0.0,         0.0
"Line.174958"           ,   2,        -0.3,        -1.4
"Line.174959"           ,   1,         0.3,         1.4,         0.0,         0.0,         0.0,         0.0
"Line.174959"           ,   2,        -0.3,        -1.4
"Line.174960"           ,   1,         0.3,         1.4,         0.0,         0.0,         0.0,         0.0
"Line.174960"           ,   2,        -0.3,        -1.4
"Line.174961"           ,   1,       114.0,        52.6,         0.0,         0.0,         0.0,         0.0
"Line.174961"           ,   2,      -114.0,       -52.6
"Line.174962"           ,   1,        91.2,        42.0,         0.0,         0.0,         0.0,         0.0
"Line.174962"           ,   2,       -91.2,       -42.0
"Line.174963"           ,   1,        76.0,        35.1,         0.0,         0.0,         0.0,         0.0
"Line.174963"           ,   2,       -76.0,       -35.1
"Line.174964"           ,   1,        45.6,        21.0,         0.0,         0.0,         0.0,         0.0
"Line.174964"           ,   2,       -45.6,       -21.0
"Line.174965"           ,   1,        30.4,        14.1,         0.0,         0.0,         0.0,         0.0
"Line.174965"           ,   2,       -30.4,       -14.1
"Line.174966"           ,   1,       100.2,        45.6,         0.0,         0.0,         0.0,         0.0
"Line.174966"           ,   2,      -100.2,       -45.6
"Line.174967"           ,   1,        25.1,        11.5,         0.0,         0.0,         0.0,         0.0
"Line.174967"           ,   2,       -25.1,       -11.5
"Line.174968"           ,   1,        25.1,        11.5,         0.0,         0.0,         0.0,         0.0
"Line.174968"           ,   2,       -25.1,       -11.5
"Line.174969"           ,   1,        50.1,        22.6,         0.0,         0.0,         0.0,         0.0
"Line.174969"           ,   2,       -50.1,       -22.6
"Line.174970"           ,   1,        33.4,        15.1,         0.0,         0.0,         0.0,         0.0
"Line.174970"           ,   2,       -33.4,       -15.1
"Line.174971"           ,   1,        16.7,         7.5,         0.0,         0.0,         0.0,         0.0
"Line.174971"           ,   2,       -16.7,        -7.5
"Line.174972"           ,   1,        16.7,         7.5,         0.0,         0.0,         0.0,         0.0
"Line.174972"           ,   2,       -16.7,        -7.5
"Line.174973"           ,   1,       121.5,        56.9,         0.0,         0.0,         0.0,         0.0
"Line.174973"           ,   2,      -121.4,       -56.9
"Line.174974"           ,   1,        97.2,        45.6,         0.0,         0.0,         0.0,         0.0
"Line.174974"           ,   2,       -97.2,       -45.6
"Line.174975"           ,   1,        72.9,        34.2,         0.0,         0.0,         0.0,         0.0
"Line.174975"           ,   2,       -72.9,       -34.2
"Line.174976"           ,   1,        16.2,         7.4,         0.0,         0.0,         0.0,         0.0
"Line.174976"           ,   2,       -16.2,        -7.4
"Line.174977"           ,   1,        56.7,        26.8,         0.0,         0.0,         0.0,         0.0
"Line.174977"           ,   2,       -56.7,       -26.8
"Line.174978"           ,   1,        24.4,        11.8,         0.0,         0.0,         0.0,         0.0
"Line.174978"           ,   2,       -24.4,       -11.8
"Line.174979"           ,   1,         0.2,         0.5,         0.0,         0.0,         0.0,         0.0
"Line.174979"           ,   2,        -0.2,        -0.5
"Line.174980"           ,   1,      -539.4,      -250.3,         0.0,         0.0,         0.0,         0.0
"Line.174980"           ,   2,       539.5,       250.7
"Line.174981"           ,   1,        -0.0,        -0.0,         0.0,         0.0,         0.0,         0.0
"Line.174981"           ,   2,         0.0,        -0.0
"Line.174982"           ,   1,      -539.5,      -250.7,         0.0,         0.0,         0.0,         0.0
"Line.174982"           ,   2,       539.5,       250.7
"Line.174983"           ,   1,     -2167.8,       116.5,         0.0,         0.0,         0.0,         0.0
"Line.174983"           ,   2,      2167.9,      -116.1
"Line.174984"           ,   1,        -0.0,        -0.0,         0.0,         0.0,         0.0,         0.0
"Line.174984"           ,   2,         0.0,         0.0
"Line.174987"           ,   1,      1628.3,      -367.3,         0.0,         0.0,         0.0,         0.0
"Line.174987"           ,   2,     -1628.2,       367.7
"Line.174988"           ,   1,       555.9,      -828.8,         0.0,         0.0,         0.0,         0.0
"Line.174988"           ,   2,      -555.9,       828.8
"Line.174989"           ,   1,       110.9,        52.6,         0.0,         0.0,         0.0,         0.0
"Line.174989"           ,   2,      -110.9,       -52.6
"Line.174990"           ,   1,      1072.3,       461.1,         0.0,         0.0,         0.0,         0.0
"Line.174990"           ,   2,     -1072.3,      -461.1
"Line.174991"           ,   1,        -0.0,        -0.0,         0.0,         0.0,         0.0,         0.0
"Line.174991"           ,   2,        -0.0,        -0.0
"Line.174994"           ,   1,       125.4,        57.3,         0.0,         0.0,         0.0,         0.0
"Line.174994"           ,   2,      -125.4,       -57.3
"Line.174995"           ,   1,     -2168.2,       115.5,         0.0,         0.0,         0.0,         0.0
"Line.174995"           ,   2,      2168.5,      -114.5
"Line.174998"           ,   1,     -2488.0,       -27.5,         0.0,         0.0,         0.0,         0.0
"Line.174998"           ,   2,      2488.2,        28.2
"Line.174999"           ,   1,     -2491.3,       -29.6,         0.0,         0.0,         0.0,         0.0
"Line.174999"           ,   2,      2491.4,        30.2
"Line.175000"           ,   1,       125.4,        57.3,         0.0,         0.0,         0.0,         0.0
"Line.175000"           ,   2,      -125.4,       -57.3
"Line.175001"           ,   1,        -0.3,        -1.4,         0.0,         0.0,         0.0,         0.0
"Line.175001"           ,   2,         0.3,         1.4
"Line.175002"           ,   1,       110.9,        52.6,         0.0,         0.0,         0.0,         0.0
"Line.175002"           ,   2,      -110.9,       -52.6
"Line.175003"           ,   1,        95.7,        45.7,         0.0,         0.0,         0.0,         0.0
"Line.175003"           ,   2,       -95.7,       -45.7
"Line.175004"           ,   1,         0.3,         1.4,         0.0,         0.0,         0.0,         0.0
"Line.175004"           ,   2,        -0.3,        -1.4
"Line.175005"           ,   1,         0.3,         1.4,         0.0,         0.0,         0.0,         0.0
"Line.175005"           ,   2,        -0.3,        -1.4
"Line.175006"           ,   1,        92.0,        42.2,         0.0,         0.0,         0.0,         0.0
"Line.175006"           ,   2,       -92.0,       -42.2
...
"Line.S_0862099-DA1"    ,   1,        15.9,         6.9,         0.0,         0.0,         0.0,         0.0
"Line.S_0862099-DA1"    ,   2,       -15.9,        -6.9
"Line.S_0862099-DA2"    ,   1,        15.9,         6.9,         0.0,         0.0,         0.0,         0.0
"Line.S_0862099-DA2"    ,   2,       -15.9,        -6.9
"Line.S_0862099-DA3"    ,   1,        15.9,         6.9,         0.0,         0.0,         0.0,         0.0
"Line.S_0862099-DA3"    ,   2,       -15.9,        -6.9
"Line.S_1000663-DA1"    ,   1,         7.6,         3.3,         0.0,         0.0,         0.0,         0.0
"Line.S_1000663-DA1"    ,   2,        -7.6,        -3.3
"Line.S_1000663-DB1"    ,   1,         8.1,         3.5,         0.0,         0.0,         0.0,         0.0
"Line.S_1000663-DB1"    ,   2,        -8.0,        -3.5
"Line.S_1000663-DC1"    ,   1,         8.4,         3.7,         0.0,         0.0,         0.0,         0.0
"Line.S_1000663-DC1"    ,   2,        -8.3,        -3.7
"Line.S_1000252-DB1"    ,   1,        11.9,         5.2,         0.0,         0.0,         0.0,         0.0
"Line.S_1000252-DB1"    ,   2,       -11.8,        -5.2
"Line.S_1001746-DA1"    ,   1,        31.8,        13.6,         0.0,         0.0,         0.0,         0.0
"Line.S_1001746-DA1"    ,   2,       -31.6,       -13.5
"Line.S_1001746-DA2"    ,   1,        31.8,        13.6,         0.0,         0.0,         0.0,         0.0
"Line.S_1001746-DA2"    ,   2,       -31.6,       -13.5
"Line.S_1001746-DA3"    ,   1,        31.8,        13.6,         0.0,         0.0,         0.0,         0.0
"Line.S_1001746-DA3"    ,   2,       -31.6,       -13.5
"Line.S_1000502-DB1"    ,   1,        24.2,        10.4,         0.0,         0.0,         0.0,         0.0
"Line.S_1000502-DB1"    ,   2,       -23.9,       -10.3
"Line.S_1000824-DA1"    ,   1,         2.5,         1.1,         0.0,         0.0,         0.0,         0.0
"Line.S_1000824-DA1"    ,   2,        -2.5,        -1.1
"Line.S_1000824-DA2"    ,   1,         2.5,         1.1,         0.0,         0.0,         0.0,         0.0
"Line.S_1000824-DA2"    ,   2,        -2.5,        -1.1
"Line.S_1000824-DA3"    ,   1,         2.5,         1.1,         0.0,         0.0,         0.0,         0.0
"Line.S_1000824-DA3"    ,   2,        -2.5,        -1.1
"Line.S_1000824-DB1"    ,   1,         2.7,         1.2,         0.0,         0.0,         0.0,         0.0
"Line.S_1000824-DB1"    ,   2,        -2.7,        -1.2
"Line.S_1000824-DB2"    ,   1,         2.7,         1.2,         0.0,         0.0,         0.0,         0.0
"Line.S_1000824-DB2"    ,   2,        -2.7,        -1.2
"Line.S_1000824-DB3"    ,   1,         2.7,         1.2,         0.0,         0.0,         0.0,         0.0
"Line.S_1000824-DB3"    ,   2,        -2.7,        -1.2
"Line.S_1000824-DC1"    ,   1,         2.8,         1.2,         0.0,         0.0,         0.0,         0.0
"Line.S_1000824-DC1"    ,   2,        -2.8,        -1.2
"Line.S_1000824-DC2"    ,   1,         2.8,         1.2,         0.0,         0.0,         0.0,         0.0
"Line.S_1000824-DC2"    ,   2,        -2.8,        -1.2
"Line.S_1000824-DC3"    ,   1,         2.8,         1.2,         0.0,         0.0,         0.0,         0.0
"Line.S_1000824-DC3"    ,   2,        -2.8,        -1.2
"Line.S_1001745-DA1"    ,   1,        31.8,        13.6,         0.0,         0.0,         0.0,         0.0
"Line.S_1001745-DA1"    ,   2,       -31.6,       -13.5
"Line.S_1001745-DA2"    ,   1,        31.8,        13.6,         0.0,         0.0,         0.0,         0.0
"Line.S_1001745-DA2"    ,   2,       -31.6,       -13.5
"Line.S_1001745-DA3"    ,   1,        31.8,        13.6,         0.0,         0.0,         0.0,         0.0
"Line.S_1001745-DA3"    ,   2,       -31.6,       -13.5
"Line.S_1001329-DA1"    ,   1,        15.9,         6.9,         0.0,         0.0,         0.0,         0.0
"Line.S_1001329-DA1"    ,   2,       -15.8,        -6.8
"Line.S_1001329-DA2"    ,   1,        15.9,         6.9,         0.0,         0.0,         0.0,         0.0
"Line.S_1001329-DA2"    ,   2,       -15.8,        -6.8
"Line.S_1001329-DA3"    ,   1,        15.9,         6.9,         0.0,         0.0,         0.0,         0.0
"Line.S_1001329-DA3"    ,   2,       -15.8,        -6.8
"Line.S_1001359-DA1"    ,   1,        53.0,        22.2,         0.0,         0.0,         0.0,         0.0
"Line.S_1001359-DA1"    ,   2,       -52.2,       -21.9
"Line.S_1001359-DA2"    ,   1,        53.0,        22.2,         0.0,         0.0,         0.0,         0.0
"Line.S_1001359-DA2"    ,   2,       -52.2,       -21.9
"Line.S_1001359-DA3"    ,   1,        53.0,        22.2,         0.0,         0.0,         0.0,         0.0
"Line.S_1001359-DA3"    ,   2,       -52.2,       -21.9
"Line.S_1001330-DA1"    ,   1,        15.9,         6.9,         0.0,         0.0,         0.0,         0.0
"Line.S_1001330-DA1"    ,   2,       -15.8,        -6.8
"Line.S_1001330-DA2"    ,   1,        15.9,         6.9,         0.0,         0.0,         0.0,         0.0
"Line.S_1001330-DA2"    ,   2,       -15.8,        -6.8
"Line.S_1001330-DA3"    ,   1,        15.9,         6.9,         0.0,         0.0,         0.0,         0.0
"Line.S_1001330-DA3"    ,   2,       -15.8,        -6.8
"Line.S_1001330-DA4"    ,   1,        15.9,         6.9,         0.0,         0.0,         0.0,         0.0
"Line.S_1001330-DA4"    ,   2,       -15.8,        -6.8
"Line.S_1001330-DA5"    ,   1,        15.9,         6.9,         0.0,         0.0,         0.0,         0.0
"Line.S_1001330-DA5"    ,   2,       -15.8,        -6.8
"Line.S_1001330-DA6"    ,   1,        15.9,         6.9,         0.0,         0.0,         0.0,         0.0
"Line.S_1001330-DA6"    ,   2,       -15.8,        -6.8
"Line.S_1000672-DA1"    ,   1,         7.6,         3.3,         0.0,         0.0,         0.0,         0.0
"Line.S_1000672-DA1"    ,   2,        -7.5,        -3.3
"Line.S_1001708-DA1"    ,   1,        79.5,        32.6,         0.0,         0.0,         0.0,         0.0
"Line.S_1001708-DA1"    ,   2,       -77.7,       -32.0
"Line.S_1001708-DA2"    ,   1,        79.5,        32.6,         0.0,         0.0,         0.0,         0.0
"Line.S_1001708-DA2"    ,   2,       -77.7,       -32.0
"Line.S_1001708-DA3"    ,   1,        79.5,        32.6,         0.0,         0.0,         0.0,         0.0
"Line.S_1001708-DA3"    ,   2,       -77.7,       -32.0
"Line.S_1001345-DA1"    ,   1,        15.9,         6.8,         0.0,         0.0,         0.0,         0.0
"Line.S_1001345-DA1"    ,   2,       -15.8,        -6.8
"Line.S_1001345-DA2"    ,   1,        15.9,         6.8,         0.0,         0.0,         0.0,         0.0
"Line.S_1001345-DA2"    ,   2,       -15.8,        -6.8
"Line.S_1001345-DA3"    ,   1,        15.9,         6.8,         0.0,         0.0,         0.0,         0.0
"Line.S_1001345-DA3"    ,   2,       -15.8,        -6.8
"Line.S_1000933-DA1"    ,   1,         3.2,         1.4,         0.0,         0.0,         0.0,         0.0
"Line.S_1000933-DA1"    ,   2,        -3.2,        -1.4
"Line.S_1000933-DA2"    ,   1,         3.2,         1.4,         0.0,         0.0,         0.0,         0.0
"Line.S_1000933-DA2"    ,   2,        -3.2,        -1.4
"Line.S_1000933-DA3"    ,   1,         3.2,         1.4,         0.0,         0.0,         0.0,         0.0
"Line.S_1000933-DA3"    ,   2,        -3.2,        -1.4
"Line.S_1000933-DA4"    ,   1,         3.2,         1.4,         0.0,         0.0,         0.0,         0.0
"Line.S_1000933-DA4"    ,   2,        -3.2,        -1.4
"Line.S_1000933-DA5"    ,   1,         3.2,         1.4,         0.0,         0.0,         0.0,         0.0
"Line.S_1000933-DA5"    ,   2,        -3.2,        -1.4
"Line.S_1000933-DA6"    ,   1,         3.2,         1.4,         0.0,         0.0,         0.0,         0.0
"Line.S_1000933-DA6"    ,   2,        -3.2,        -1.4
"Line.S_1000933-DA7"    ,   1,         3.2,         1.4,         0.0,         0.0,         0.0,         0.0
"Line.S_1000933-DA7"    ,   2,        -3.2,        -1.4
"Line.S_1000933-DA8"    ,   1,         3.2,         1.4,         0.0,         0.0,         0.0,         0.0
"Line.S_1000933-DA8"    ,   2,        -3.2,        -1.4
"Line.S_1000933-DA9"    ,   1,         3.2,         1.4,         0.0,         0.0,         0.0,         0.0
"Line.S_1000933-DA9"    ,   2,        -3.2,        -1.4
"Line.S_1000933-DA10"   ,   1,         3.2,         1.4,         0.0,         0.0,         0.0,         0.0
"Line.S_1000933-DA10"   ,   2,        -3.2,        -1.4
"Line.S_1000933-DA11"   ,   1,         3.2,         1.4,         0.0,         0.0,         0.0,         0.0
"Line.S_1000933-DA11"   ,   2,        -3.2,        -1.4
"Line.S_1000933-DA12"   ,   1,         3.2,         1.4,         0.0,         0.0,         0.0,         0.0
"Line.S_1000933-DA12"   ,   2,        -3.2,        -1.4
"Line.S_1000933-DA13"   ,   1,         3.2,         1.4,         0.0,         0.0,         0.0,         0.0
"Line.S_1000933-DA13"   ,   2,        -3.2,        -1.4
"Line.S_1000933-DA14"   ,   1,         3.2,         1.4,         0.0,         0.0,         0.0,         0.0
"Line.S_1000933-DA14"   ,   2,        -3.2,        -1.4
"Line.S_1000933-DA15"   ,   1,         3.2,         1.4,         0.0,         0.0,         0.0,         0.0
"Line.S_1000933-DA15"   ,   2,        -3.2,        -1.4
"Line.S_1001823-DA1"    ,   1,        11.2,         4.8,         0.0,         0.0,         0.0,         0.0
"Line.S_1001823-DA1"    ,   2,       -11.1,        -4.8
"Line.S_1001822-DA1"    ,   1,         1.5,         0.7,         0.0,         0.0,         0.0,         0.0
"Line.S_1001822-DA1"    ,   2,        -1.5,        -0.7
"Line.S_1001822-DB1"    ,   1,         1.6,         0.7,         0.0,         0.0,         0.0,         0.0
"Line.S_1001822-DB1"    ,   2,        -1.6,        -0.7
"Line.S_1001822-DC1"    ,   1,         1.7,         0.7,         0.0,         0.0,         0.0,         0.0
"Line.S_1001822-DC1"    ,   2,        -1.7,        -0.7
"Line.S_1000042-DA1"    ,   1,         4.3,         1.9,         0.0,         0.0,         0.0,         0.0
"Line.S_1000042-DA1"    ,   2,        -4.3,        -1.9
"Line.S_1000042-DA2"    ,   1,         4.3,         1.9,         0.0,         0.0,         0.0,         0.0
"Line.S_1000042-DA2"    ,   2,        -4.3,        -1.9
"Line.S_1000042-DA3"    ,   1,         4.3,         1.9,         0.0,         0.0,         0.0,         0.0
"Line.S_1000042-DA3"    ,   2,        -4.3,        -1.9
"Line.S_1000042-DA4"    ,   1,         4.3,         1.9,         0.0,         0.0,         0.0,         0.0
"Line.S_1000042-DA4"    ,   2,        -4.3,        -1.9
"Line.S_1000042-DA5"    ,   1,         4.3,         1.9,         0.0,         0.0,         0.0,         0.0
"Line.S_1000042-DA5"    ,   2,        -4.3,        -1.9
"Line.S_1000042-DA6"    ,   1,         4.3,         1.9,         0.0,         0.0,         0.0,         0.0
"Line.S_1000042-DA6"    ,   2,        -4.3,        -1.9
"Line.S_1000042-DA7"    ,   1,         4.3,         1.9,         0.0,         0.0,         0.0,         0.0
"Line.S_1000042-DA7"    ,   2,        -4.3,        -1.9
"Line.S_1000077-DA1"    ,   1,         2.5,         1.1,         0.0,         0.0,         0.0,         0.0
"Line.S_1000077-DA1"    ,   2,        -2.5,        -1.1
"Line.S_1000077-DA2"    ,   1,         2.5,         1.1,         0.0,         0.0,         0.0,         0.0
"Line.S_1000077-DA2"    ,   2,        -2.5,        -1.1
"Line.S_1000077-DA3"    ,   1,         2.5,         1.1,         0.0,         0.0,         0.0,         0.0
"Line.S_1000077-DA3"    ,   2,        -2.5,        -1.1
"Line.S_1000077-DA4"    ,   1,         2.5,         1.1,         0.0,         0.0,         0.0,         0.0
"Line.S_1000077-DA4"    ,   2,        -2.5,        -1.1
"Line.S_1000077-DA5"    ,   1,         2.5,         1.1,         0.0,         0.0,         0.0,         0.0
"Line.S_1000077-DA5"    ,   2,        -2.5,        -1.1
"Line.S_1000077-DA6"    ,   1,         2.5,         1.1,         0.0,         0.0,         0.0,         0.0
"Line.S_1000077-DA6"    ,   2,        -2.5,        -1.1
"Line.S_1000474-DA1"    ,   1,         3.0,         1.3,         0.0,         0.0,         0.0,         0.0
"Line.S_1000474-DA1"    ,   2,        -3.0,        -1.3
"Line.S_1000474-DA2"    ,   1,         3.0,         1.3,         0.0,         0.0,         0.0,         0.0
"Line.S_1000474-DA2"    ,   2,        -3.0,        -1.3
"Line.S_1000474-DA3"    ,   1,         3.0,         1.3,         0.0,         0.0,         0.0,         0.0
"Line.S_1000474-DA3"    ,   2,        -3.0,        -1.3
"Line.S_1000474-DA4"    ,   1,         3.0,         1.3,         0.0,         0.0,         0.0,         0.0
"Line.S_1000474-DA4"    ,   2,        -3.0,        -1.3
"Line.S_1000474-DA5"    ,   1,         3.0,         1.3,         0.0,         0.0,         0.0,         0.0
"Line.S_1000474-DA5"    ,   2,        -3.0,        -1.3
"Line.S_1000043-DA1"    ,   1,         2.5,         1.1,         0.0,         0.0,         0.0,         0.0
"Line.S_1000043-DA1"    ,   2,        -2.5,        -1.1
"Line.S_1000043-DA2"    ,   1,         2.5,         1.1,         0.0,         0.0,         0.0,         0.0
"Line.S_1000043-DA2"    ,   2,        -2.5,        -1.1
"Line.S_1000043-DA3"    ,   1,         2.5,         1.1,         0.0,         0.0,         0.0,         0.0
"Line.S_1000043-DA3"    ,   2,        -2.5,        -1.1
"Line.S_1000043-DA4"    ,   1,         2.5,         1.1,         0.0,         0.0,         0.0,         0.0
"Line.S_1000043-DA4"    ,   2,        -2.5,        -1.1
"Line.S_1000043-DA5"    ,   1,         2.5,         1.1,         0.0,         0.0,         0.0,         0.0
"Line.S_1000043-DA5"    ,   2,        -2.5,        -1.1
"Line.S_1000043-DA6"    ,   1,         2.5,         1.1,         0.0,         0.0,         0.0,         0.0
"Line.S_1000043-DA6"    ,   2,        -2.5,        -1.1
"Line.S_1001567-DA1"    ,   1,        15.9,         6.8,         0.0,         0.0,         0.0,         0.0
"Line.S_1001567-DA1"    ,   2,       -15.8,        -6.8
"Line.S_1001567-DA2"    ,   1,        15.9,         6.8,         0.0,         0.0,         0.0,         0.0
"Line.S_1001567-DA2"    ,   2,       -15.8,        -6.8
"Line.S_1001567-DA3"    ,   1,        15.9,         6.8,         0.0,         0.0,         0.0,         0.0
"Line.S_1001567-DA3"    ,   2,       -15.8,        -6.8
"Line.S_1000233-DB1"    ,   1,        11.8,         5.0,         0.0,         0.0,         0.0,         0.0
"Line.S_1000233-DB1"    ,   2,       -11.7,        -5.0
"Line.S_1000569-DA1"    ,   1,        31.6,        13.2,         0.0,         0.0,         0.0,         0.0
"Line.S_1000569-DA1"    ,   2,       -31.3,       -13.1
"Line.S_1000569-DA2"    ,   1,        31.6,        13.2,         0.0,         0.0,         0.0,         0.0
"Line.S_1000569-DA2"    ,   2,       -31.3,       -13.1
"Line.S_1000569-DA3"    ,   1,        31.6,        13.2,         0.0,         0.0,         0.0,         0.0
"Line.S_1000569-DA3"    ,   2,       -31.3,       -13.1
"Line.S_1000746-DA1"    ,   1,        31.5,        13.2,         0.0,         0.0,         0.0,         0.0
"Line.S_1000746-DA1"    ,   2,       -31.3,       -13.1
"Line.S_1000746-DA2"    ,   1,        31.5,        13.2,         0.0,         0.0,         0.0,         0.0
"Line.S_1000746-DA2"    ,   2,       -31.3,       -13.1
"Line.S_1000746-DA3"    ,   1,        31.5,        13.2,         0.0,         0.0,         0.0,         0.0
"Line.S_1000746-DA3"    ,   2,       -31.3,       -13.1
"Line.S_1000608-DA1"    ,   1,         2.8,         1.2,         0.0,         0.0,         0.0,         0.0
"Line.S_1000608-DA1"    ,   2,        -2.8,        -1.2
"Line.S_1000608-DA2"    ,   1,         2.8,         1.2,         0.0,         0.0,         0.0,         0.0
"Line.S_1000608-DA2"    ,   2,        -2.8,        -1.2
"Line.S_1000608-DA3"    ,   1,         2.8,         1.2,         0.0,         0.0,         0.0,         0.0
"Line.S_1000608-DA3"    ,   2,        -2.8,        -1.2
"Line.S_1000608-DA4"    ,   1,         2.8,         1.2,         0.0,         0.0,         0.0,         0.0
"Line.S_1000608-DA4"    ,   2,        -2.8,        -1.2
"Line.S_1000608-DA5"    ,   1,         2.8,         1.2,         0.0,         0.0,         0.0,         0.0
"Line.S_1000608-DA5"    ,   2,        -2.8,        -1.2
"Line.S_1000608-DA6"    ,   1,         2.8,         1.2,         0.0,         0.0,         0.0,         0.0
"Line.S_1000608-DA6"    ,   2,        -2.8,        -1.2
"Line.S_1000608-DA7"    ,   1,         2.8,         1.2,         0.0,         0.0,         0.0,         0.0
"Line.S_1000608-DA7"    ,   2,        -2.8,        -1.2
"Line.S_1000608-DA8"    ,   1,         2.8,         1.2,         0.0,         0.0,         0.0,         0.0
"Line.S_1000608-DA8"    ,   2,        -2.8,        -1.2
"Line.S_1000609-DA1"    ,   1,         1.4,         0.6,         0.0,         0.0,         0.0,         0.0
"Line.S_1000609-DA1"    ,   2,        -1.4,        -0.6
"Line.S_1000609-DA2"    ,   1,         1.4,         0.6,         0.0,         0.0,         0.0,         0.0
"Line.S_1000609-DA2"    ,   2,        -1.4,        -0.6
"Line.S_1000609-DA3"    ,   1,         1.4,         0.6,         0.0,         0.0,         0.0,         0.0
"Line.S_1000609-DA3"    ,   2,        -1.4,        -0.6
"Line.S_1000609-DA4"    ,   1,         1.4,         0.6,         0.0,         0.0,         0.0,         0.0
"Line.S_1000609-DA4"    ,   2,        -1.4,        -0.6
"Line.S_1000609-DA5"    ,   1,         1.4,         0.6,         0.0,         0.0,         0.0,         0.0
"Line.S_1000609-DA5"    ,   2,        -1.4,        -0.6
"Line.S_1000609-DA6"    ,   1,         1.4,         0.6,         0.0,         0.0,         0.0,         0.0
"Line.S_1000609-DA6"    ,   2,        -1.4,        -0.6
"Line.S_1000609-DA7"    ,   1,         1.4,         0.6,         0.0,         0.0,         0.0,         0.0
"Line.S_1000609-DA7"    ,   2,        -1.4,        -0.6
"Line.S_1000609-DA8"    ,   1,         1.4,         0.6,         0.0,         0.0,         0.0,         0.0
"Line.S_1000609-DA8"    ,   2,        -1.4,        -0.6
"Line.S_1000609-DA9"    ,   1,         1.4,         0.6,         0.0,         0.0,         0.0,         0.0
"Line.S_1000609-DA9"    ,   2,        -1.4,        -0.6
"Line.S_1000609-DA10"   ,   1,         1.4,         0.6,         0.0,         0.0,         0.0,         0.0
"Line.S_1000609-DA10"   ,   2,        -1.4,        -0.6
"Line.S_1000609-DA11"   ,   1,         1.4,         0.6,         0.0,         0.0,         0.0,         0.0
"Line.S_1000609-DA11"   ,   2,        -1.4,        -0.6
"Line.S_1000610-DA1"    ,   1,         2.7,         1.2,         0.0,         0.0,         0.0,         0.0
"Line.S_1000610-DA1"    ,   2,        -2.7,        -1.2
"Line.S_1000610-DA2"    ,   1,         2.7,         1.2,         0.0,         0.0,         0.0,         0.0
"Line.S_1000610-DA2"    ,   2,        -2.7,        -1.2
"Line.S_1000610-DA3"    ,   1,         2.7,         1.2,         0.0,         0.0,         0.0,         0.0
"Line.S_1000610-DA3"    ,   2,        -2.7,        -1.2
"Line.S_1000610-DA4"    ,   1,         2.7,         1.2,         0.0,         0.0,         0.0,         0.0
"Line.S_1000610-DA4"    ,   2,        -2.7,        -1.2
"Line.S_1000610-DA5"    ,   1,         2.7,         1.2,         0.0,         0.0,         0.0,         0.0
"Line.S_1000610-DA5"    ,   2,        -2.7,        -1.2
"Line.S_1000610-DA6"    ,   1,         2.7,         1.2,         0.0,         0.0,         0.0,         0.0
"Line.S_1000610-DA6"    ,   2,        -2.7,        -1.2
"Line.S_1000610-DA7"    ,   1,         2.7,         1.2,         0.0,         0.0,         0.0,         0.0
"Line.S_1000610-DA7"    ,   2,        -2.7,        -1.2
"Line.S_1000610-DA8"    ,   1,         2.7,         1.2,         0.0,         0.0,         0.0,         0.0
"Line.S_1000610-DA8"    ,   2,        -2.7,        -1.2
"Line.S_1000610-DA9"    ,   1,         2.7,         1.2,         0.0,         0.0,         0.0,         0.0
"Line.S_1000610-DA9"    ,   2,        -2.7,        -1.2
"Line.S_1000610-DA10"   ,   1,         2.7,         1.2,         0.0,         0.0,         0.0,         0.0
"Line.S_1000610-DA10"   ,   2,        -2.7,        -1.2
"Line.S_1000610-DA11"   ,   1,         2.7,         1.2,         0.0,         0.0,         0.0,         0.0
"Line.S_1000610-DA11"   ,   2,        -2.7,        -1.2
"Line.S_1000611-DA1"    ,   1,         3.0,         1.3,         0.0,         0.0,         0.0,         0.0
"Line.S_1000611-DA1"    ,   2,        -3.0,        -1.3
"Line.S_1000611-DA2"    ,   1,         3.0,         1.3,         0.0,         0.0,         0.0,         0.0
"Line.S_1000611-DA2"    ,   2,        -3.0,        -1.3
"Line.S_1000611-DA3"    ,   1,         3.0,         1.3,         0.0,         0.0,         0.0,         0.0
"Line.S_1000611-DA3"    ,   2,        -3.0,        -1.3
"Line.S_1000611-DA4"    ,   1,         3.0,         1.3,         0.0,         0.0,         0.0,         0.0
"Line.S_1000611-DA4"    ,   2,        -3.0,        -1.3
"Line.S_1000611-DA5"    ,   1,         3.0,         1.3,         0.0,         0.0,         0.0,         0.0
"Line.S_1000611-DA5"    ,   2,        -3.0,        -1.3
"Line.S_1000612-DA1"    ,   1,         3.7,         1.6,         0.0,         0.0,         0.0,         0.0
"Line.S_1000612-DA1"    ,   2,        -3.7,        -1.6
"Line.S_1000612-DA2"    ,   1,         3.7,         1.6,         0.0,         0.0,         0.0,         0.0
"Line.S_1000612-DA2"    ,   2,        -3.7,        -1.6
"Line.S_1000612-DA3"    ,   1,         3.7,         1.6,         0.0,         0.0,         0.0,         0.0
"Line.S_1000612-DA3"    ,   2,        -3.7,        -1.6
"Line.S_1000612-DA4"    ,   1,         3.7,         1.6,         0.0,         0.0,         0.0,         0.0
"Line.S_1000612-DA4"    ,   2,        -3.7,        -1.6
"Line.S_1000612-DA5"    ,   1,         3.7,         1.6,         0.0,         0.0,         0.0,         0.0
"Line.S_1000612-DA5"    ,   2,        -3.7,        -1.6
"Line.S_1000612-DA6"    ,   1,         3.7,         1.6,         0.0,         0.0,         0.0,         0.0
"Line.S_1000612-DA6"    ,   2,        -3.7,        -1.6
"Line.S_1000612-DA7"    ,   1,         3.7,         1.6,         0.0,         0.0,         0.0,         0.0
"Line.S_1000612-DA7"    ,   2,        -3.7,        -1.6
"Line.S_1000612-DA8"    ,   1,         3.7,         1.6,         0.0,         0.0,         0.0,         0.0
"Line.S_1000612-DA8"    ,   2,        -3.7,        -1.6
"Line.S_1000598-DC1"    ,   1,         2.7,         1.2,         0.0,         0.0,         0.0,         0.0
"Line.S_1000598-DC1"    ,   2,        -2.7,        -1.2
"Line.S_1000598-DC2"    ,   1,         2.7,         1.2,         0.0,         0.0,         0.0,         0.0
"Line.S_1000598-DC2"    ,   2,        -2.7,        -1.2
"Line.S_1000598-DC3"    ,   1,         2.7,         1.2,         0.0,         0.0,         0.0,         0.0
"Line.S_1000598-DC3"    ,   2,        -2.7,        -1.2
"Line.S_1000598-DC4"    ,   1,         2.7,         1.2,         0.0,         0.0,         0.0,         0.0
"Line.S_1000598-DC4"    ,   2,        -2.7,        -1.2
"Line.S_1000598-DC5"    ,   1,         2.7,         1.2,         0.0,         0.0,         0.0,         0.0
"Line.S_1000598-DC5"    ,   2,        -2.7,        -1.2
"Line.S_1000598-DC6"    ,   1,         2.7,         1.2,         0.0,         0.0,         0.0,         0.0
"Line.S_1000598-DC6"    ,   2,        -2.7,        -1.2
"Line.S_1000598-DC7"    ,   1,         2.7,         1.2,         0.0,         0.0,         0.0,         0.0
"Line.S_1000598-DC7"    ,   2,        -2.7,        -1.2
"Line.S_1000598-DC8"    ,   1,         2.7,         1.2,         0.0,         0.0,         0.0,         0.0
"Line.S_1000598-DC8"    ,   2,        -2.7,        -1.2
"Line.S_1000598-DC9"    ,   1,         2.7,         1.2,         0.0,         0.0,         0.0,         0.0
"Line.S_1000598-DC9"    ,   2,        -2.7,        -1.2
"Line.S_1000599-DC1"    ,   1,         2.2,         1.0,         0.0,         0.0,         0.0,         0.0
"Line.S_1000599-DC1"    ,   2,        -2.2,        -1.0
"Line.S_1000599-DC2"    ,   1,         2.2,         1.0,         0.0,         0.0,         0.0,         0.0
"Line.S_1000599-DC2"    ,   2,        -2.2,        -1.0
"Line.S_1000599-DC3"    ,   1,         2.2,         1.0,         0.0,         0.0,         0.0,         0.0
"Line.S_1000599-DC3"    ,   2,        -2.2,        -1.0
"Line.S_1000599-DC4"    ,   1,         2.2,         1.0,         0.0,         0.0,         0.0,         0.0
"Line.S_1000599-DC4"    ,   2,        -2.2,        -1.0
"Line.S_1000599-DC5"    ,   1,         2.2,         1.0,         0.0,         0.0,         0.0,         0.0
"Line.S_1000599-DC5"    ,   2,        -2.2,        -1.0
"Line.S_1000599-DC6"    ,   1,         2.2,         1.0,         0.0,         0.0,         0.0,         0.0
"Line.S_1000599-DC6"    ,   2,        -2.2,        -1.0
"Line.S_1000599-DC7"    ,   1,         2.2,         1.0,         0.0,         0.0,         0.0,         0.0
"Line.S_1000599-DC7"    ,   2,        -2.2,        -1.0
"Line.S_1000599-DC8"    ,   1,         2.2,         1.0,         0.0,         0.0,         0.0,         0.0
"Line.S_1000599-DC8"    ,   2,        -2.2,        -1.0
"Line.S_1000599-DC9"    ,   1,         2.2,         1.0,         0.0,         0.0,         0.0,         0.0
"Line.S_1000599-DC9"    ,   2,        -2.2,        -1.0
"Line.S_1000599-DC10"   ,   1,         2.2,         1.0,         0.0,         0.0,         0.0,         0.0
"Line.S_1000599-DC10"   ,   2,        -2.2,        -1.0
"Line.S_1000599-DC11"   ,   1,         2.2,         1.0,         0.0,         0.0,         0.0,         0.0
"Line.S_1000599-DC11"   ,   2,        -2.2,        -1.0
"Line.S_1000600-DC1"    ,   1,         1.8,         0.8,         0.0,         0.0,         0.0,         0.0
"Line.S_1000600-DC1"    ,   2,        -1.8,        -0.8
"Line.S_1000600-DC2"    ,   1,         1.8,         0.8,         0.0,         0.0,         0.0,         0.0
"Line.S_1000600-DC2"    ,   2,        -1.8,        -0.8
"Line.S_1000600-DC3"    ,   1,         1.8,         0.8,         0.0,         0.0,         0.0,         0.0
"Line.S_1000600-DC3"    ,   2,        -1.8,        -0.8
"Line.S_1000600-DC4"    ,   1,         1.8,         0.8,         0.0,         0.0,         0.0,         0.0
"Line.S_1000600-DC4"    ,   2,        -1.8,        -0.8
"Line.S_1000600-DC5"    ,   1,         1.8,         0.8,         0.0,         0.0,         0.0,         0.0
"Line.S_1000600-DC5"    ,   2,        -1.8,        -0.8
"Line.S_1000600-DC6"    ,   1,         1.8,         0.8,         0.0,         0.0,         0.0,         0.0
"Line.S_1000600-DC6"    ,   2,        -1.8,        -0.8
"Line.S_1000600-DC7"    ,   1,         1.8,         0.8,         0.0,         0.0,         0.0,         0.0
"Line.S_1000600-DC7"    ,   2,        -1.8,        -0.8
"Line.S_1000600-DC8"    ,   1,         1.8,         0.8,         0.0,         0.0,         0.0,         0.0
"Line.S_1000600-DC8"    ,   2,        -1.8,        -0.8
"Line.S_1000600-DC9"    ,   1,         1.8,         0.8,         0.0,         0.0,         0.0,         0.0
"Line.S_1000600-DC9"    ,   2,        -1.8,        -0.8
"Line.S_1000602-DC1"    ,   1,         2.1,         0.9,         0.0,         0.0,         0.0,         0.0
"Line.S_1000602-DC1"    ,   2,        -2.1,        -0.9
"Line.S_1000602-DC2"    ,   1,         2.1,         0.9,         0.0,         0.0,         0.0,         0.0
"Line.S_1000602-DC2"    ,   2,        -2.1,        -0.9
"Line.S_1000602-DC3"    ,   1,         2.1,         0.9,         0.0,         0.0,         0.0,         0.0
"Line.S_1000602-DC3"    ,   2,        -2.1,        -0.9
"Line.S_1000602-DC4"    ,   1,         2.1,         0.9,         0.0,         0.0,         0.0,         0.0
"Line.S_1000602-DC4"    ,   2,        -2.1,        -0.9
"Line.S_1000602-DC5"    ,   1,         2.1,         0.9,         0.0,         0.0,         0.0,         0.0
"Line.S_1000602-DC5"    ,   2,        -2.1,        -0.9
"Line.S_1000602-DC6"    ,   1,         2.1,         0.9,         0.0,         0.0,         0.0,         0.0
"Line.S_1000602-DC6"    ,   2,        -2.1,        -0.9
"Line.S_1000602-DC7"    ,   1,         2.1,         0.9,         0.0,         0.0,         0.0,         0.0
"Line.S_1000602-DC7"    ,   2,        -2.1,        -0.9
"Line.S_1000602-DC8"    ,   1,         2.1,         0.9,         0.0,         0.0,         0.0,         0.0
"Line.S_1000602-DC8"    ,   2,        -2.1,        -0.9
"Line.S_1000601-DC1"    ,   1,         2.1,         0.9,         0.0,         0.0,         0.0,         0.0
"Line.S_1000601-DC1"    ,   2,        -2.1,        -0.9
"Line.S_1000601-DC2"    ,   1,         2.1,         0.9,         0.0,         0.0,         0.0,         0.0
"Line.S_1000601-DC2"    ,   2,        -2.1,        -0.9
"Line.S_1000601-DC3"    ,   1,         2.1,         0.9,         0.0,         0.0,         0.0,         0.0
"Line.S_1000601-DC3"    ,   2,        -2.1,        -0.9
"Line.S_1000601-DC4"    ,   1,         2.1,         0.9,         0.0,         0.0,         0.0,         0.0
"Line.S_1000601-DC4"    ,   2,        -2.1,        -0.9
"Line.S_1000601-DC5"    ,   1,         2.1,         0.9,         0.0,         0.0,         0.0,         0.0
"Line.S_1000601-DC5"    ,   2,        -2.1,        -0.9
"Line.S_1000601-DC6"    ,   1,         2.1,         0.9,         0.0,         0.0,         0.0,         0.0
"Line.S_1000601-DC6"    ,   2,        -2.1,        -0.9
"Line.S_1000601-DC7"    ,   1,         2.1,         0.9,         0.0,         0.0,         0.0,         0.0
"Line.S_1000601-DC7"    ,   2,        -2.1,        -0.9
"Line.S_1000601-DC8"    ,   1,         2.1,         0.9,         0.0,         0.0,         0.0,         0.0
"Line.S_1000601-DC8"    ,   2,        -2.1,        -0.9
"Line.S_1000603-DB1"    ,   1,         3.4,         1.5,         0.0,         0.0,         0.0,         0.0
"Line.S_1000603-DB1"    ,   2,        -3.4,        -1.5
"Line.S_1000603-DB2"    ,   1,         3.4,         1.5,         0.0,         0.0,         0.0,         0.0
"Line.S_1000603-DB2"    ,   2,        -3.4,        -1.5
"Line.S_1000603-DB3"    ,   1,         3.4,         1.5,         0.0,         0.0,         0.0,         0.0
"Line.S_1000603-DB3"    ,   2,        -3.4,        -1.5
"Line.S_1000603-DB4"    ,   1,         3.4,         1.5,         0.0,         0.0,         0.0,         0.0
"Line.S_1000603-DB4"    ,   2,        -3.4,        -1.5
"Line.S_1000603-DB5"    ,   1,         3.4,         1.5,         0.0,         0.0,         0.0,         0.0
"Line.S_1000603-DB5"    ,   2,        -3.4,        -1.5
"Line.S_1000603-DB6"    ,   1,         3.4,         1.5,         0.0,         0.0,         0.0,         0.0
"Line.S_1000603-DB6"    ,   2,        -3.4,        -1.5
"Line.S_1000603-DB7"    ,   1,         3.4,         1.5,         0.0,         0.0,         0.0,         0.0
"Line.S_1000603-DB7"    ,   2,        -3.4,        -1.5
"Line.S_1000604-DB1"    ,   1,         1.6,         0.7,         0.0,         0.0,         0.0,         0.0
"Line.S_1000604-DB1"    ,   2,        -1.6,        -0.7
"Line.S_1000604-DB2"    ,   1,         1.6,         0.7,         0.0,         0.0,         0.0,         0.0
"Line.S_1000604-DB2"    ,   2,        -1.6,        -0.7
"Line.S_1000604-DB3"    ,   1,         1.6,         0.7,         0.0,         0.0,         0.0,         0.0
"Line.S_1000604-DB3"    ,   2,        -1.6,        -0.7
"Line.S_1000604-DB4"    ,   1,         1.6,         0.7,         0.0,         0.0,         0.0,         0.0
"Line.S_1000604-DB4"    ,   2,        -1.6,        -0.7
"Line.S_1000604-DB5"    ,   1,         1.6,         0.7,         0.0,         0.0,         0.0,         0.0
"Line.S_1000604-DB5"    ,   2,        -1.6,        -0.7
"Line.S_1000604-DB6"    ,   1,         1.6,         0.7,         0.0,         0.0,         0.0,         0.0
"Line.S_1000604-DB6"    ,   2,        -1.6,        -0.7
"Line.S_1000604-DB7"    ,   1,         1.6,         0.7,         0.0,         0.0,         0.0,         0.0
"Line.S_1000604-DB7"    ,   2,        -1.6,        -0.7
"Line.S_1000604-DB8"    ,   1,         1.6,         0.7,         0.0,         0.0,         0.0,         0.0
"Line.S_1000604-DB8"    ,   2,        -1.6,        -0.7
"Line.S_1000604-DB9"    ,   1,         1.6,         0.7,         0.0,         0.0,         0.0,         0.0
"Line.S_1000604-DB9"    ,   2,        -1.6,        -0.7
"Line.S_1000604-DB10"   ,   1,         1.6,         0.7,         0.0,         0.0,         0.0,         0.0
"Line.S_1000604-DB10"   ,   2,        -1.6,        -0.7
"Line.S_1000604-DB11"   ,   1,         1.6,         0.7,         0.0,         0.0,         0.0,         0.0
"Line.S_1000604-DB11"   ,   2,        -1.6,        -0.7
"Line.S_1000604-DB12"   ,   1,         1.6,         0.7,         0.0,         0.0,         0.0,         0.0
"Line.S_1000604-DB12"   ,   2,        -1.6,        -0.7
"Line.S_1000604-DB13"   ,   1,         1.6,         0.7,         0.0,         0.0,         0.0,         0.0
"Line.S_1000604-DB13"   ,   2,        -1.6,        -0.7
"Line.S_1000604-DB14"   ,   1,         1.6,         0.7,         0.0,         0.0,         0.0,         0.0
"Line.S_1000604-DB14"   ,   2,        -1.6,        -0.7
"Line.S_1000604-DB15"   ,   1,         1.6,         0.7,         0.0,         0.0,         0.0,         0.0
"Line.S_1000604-DB15"   ,   2,        -1.6,        -0.7
"Line.S_1000605-DB1"    ,   1,         2.9,         1.2,         0.0,         0.0,         0.0,         0.0
"Line.S_1000605-DB1"    ,   2,        -2.9,        -1.2
"Line.S_1000605-DB2"    ,   1,         2.9,         1.2,         0.0,         0.0,         0.0,         0.0
"Line.S_1000605-DB2"    ,   2,        -2.9,        -1.2
"Line.S_1000605-DB3"    ,   1,         2.9,         1.2,         0.0,         0.0,         0.0,         0.0
"Line.S_1000605-DB3"    ,   2,        -2.9,        -1.2
"Line.S_1000605-DB4"    ,   1,         2.9,         1.2,         0.0,         0.0,         0.0,         0.0
"Line.S_1000605-DB4"    ,   2,        -2.9,        -1.2
"Line.S_1000605-DB5"    ,   1,         2.9,         1.2,         0.0,         0.0,         0.0,         0.0
"Line.S_1000605-DB5"    ,   2,        -2.9,        -1.2
"Line.S_1000605-DB6"    ,   1,         2.9,         1.2,         0.0,         0.0,         0.0,         0.0
"Line.S_1000605-DB6"    ,   2,        -2.9,        -1.2
"Line.S_1000605-DB7"    ,   1,         2.9,         1.2,         0.0,         0.0,         0.0,         0.0
"Line.S_1000605-DB7"    ,   2,        -2.9,        -1.2
"Line.S_1000605-DB8"    ,   1,         2.9,         1.2,         0.0,         0.0,         0.0,         0.0
"Line.S_1000605-DB8"    ,   2,        -2.9,        -1.2
"Line.S_1000605-DB9"    ,   1,         2.9,         1.2,         0.0,         0.0,         0.0,         0.0
"Line.S_1000605-DB9"    ,   2,        -2.9,        -1.2
"Line.S_1000605-DB10"   ,   1,         2.9,         1.2,         0.0,         0.0,         0.0,         0.0
"Line.S_1000605-DB10"   ,   2,        -2.9,        -1.2
"Line.S_1000605-DB11"   ,   1,         2.9,         1.2,         0.0,         0.0,         0.0,         0.0
"Line.S_1000605-DB11"   ,   2,        -2.9,        -1.2
"Line.S_1000606-DB1"    ,   1,         2.0,         0.9,         0.0,         0.0,         0.0,         0.0
"Line.S_1000606-DB1"    ,   2,        -2.0,        -0.9
"Line.S_1000606-DB2"    ,   1,         2.0,         0.9,         0.0,         0.0,         0.0,         0.0
"Line.S_1000606-DB2"    ,   2,        -2.0,        -0.9
"Line.S_1000606-DB3"    ,   1,         2.0,         0.9,         0.0,         0.0,         0.0,         0.0
"Line.S_1000606-DB3"    ,   2,        -2.0,        -0.9
"Line.S_1000606-DB4"    ,   1,         2.0,         0.9,         0.0,         0.0,         0.0,         0.0
"Line.S_1000606-DB4"    ,   2,        -2.0,        -0.9
"Line.S_1000606-DB5"    ,   1,         2.0,         0.9,         0.0,         0.0,         0.0,         0.0
"Line.S_1000606-DB5"    ,   2,        -2.0,        -0.9
"Line.S_1000606-DB6"    ,   1,         2.0,         0.9,         0.0,         0.0,         0.0,         0.0
"Line.S_1000606-DB6"    ,   2,        -2.0,        -0.9
"Line.S_1000606-DB7"    ,   1,         2.0,         0.9,         0.0,         0.0,         0.0,         0.0
"Line.S_1000606-DB7"    ,   2,        -2.0,        -0.9
"Line.S_1000606-DB8"    ,   1,         2.0,         0.9,         0.0,         0.0,         0.0,         0.0
"Line.S_1000606-DB8"    ,   2,        -2.0,        -0.9
"Line.S_1000606-DB9"    ,   1,         2.0,         0.9,         0.0,         0.0,         0.0,         0.0
"Line.S_1000606-DB9"    ,   2,        -2.0,        -0.9
"Line.S_1000606-DB10"   ,   1,         2.0,         0.9,         0.0,         0.0,         0.0,         0.0
"Line.S_1000606-DB10"   ,   2,        -2.0,        -0.9
"Line.S_1000606-DB11"   ,   1,         2.0,         0.9,         0.0,         0.0,         0.0,         0.0
"Line.S_1000606-DB11"   ,   2,        -2.0,        -0.9
"Line.S_1000606-DB12"   ,   1,         2.0,         0.9,         0.0,         0.0,         0.0,         0.0
"Line.S_1000606-DB12"   ,   2,        -2.0,        -0.9
"Line.S_1000607-DB1"    ,   1,         2.0,         0.9,         0.0,         0.0,         0.0,         0.0
"Line.S_1000607-DB1"    ,   2,        -2.0,        -0.9
"Line.S_1000607-DB2"    ,   1,         2.0,         0.9,         0.0,         0.0,         0.0,         0.0
"Line.S_1000607-DB2"    ,   2,        -2.0,        -0.9
"Line.S_1000607-DB3"    ,   1,         2.0,         0.9,         0.0,         0.0,         0.0,         0.0
"Line.S_1000607-DB3"    ,   2,        -2.0,        -0.9
"Line.S_1000607-DB4"    ,   1,         2.0,         0.9,         0.0,         0.0,         0.0,         0.0
"Line.S_1000607-DB4"    ,   2,        -2.0,        -0.9
"Line.S_1000607-DB5"    ,   1,         2.0,         0.9,         0.0,         0.0,         0.0,         0.0
"Line.S_1000607-DB5"    ,   2,        -2.0,        -0.9
"Line.S_1000607-DB6"    ,   1,         2.0,         0.9,         0.0,         0.0,         0.0,         0.0
"Line.S_1000607-DB6"    ,   2,        -2.0,        -0.9
"Line.S_1000607-DB7"    ,   1,         2.0,         0.9,         0.0,         0.0,         0.0,         0.0
"Line.S_1000607-DB7"    ,   2,        -2.0,        -0.9
"Line.S_1000607-DB8"    ,   1,         2.0,         0.9,         0.0,         0.0,         0.0,         0.0
"Line.S_1000607-DB8"    ,   2,        -2.0,        -0.9
"Line.S_1001933-DA1"    ,   1,       105.4,        41.9,        11.2,         4.4,         0.0,         0.0
"Line.S_1001933-DA1"    ,   2,      -102.4,       -40.7
"Line.S_1001933-DA2"    ,   1,       105.4,        41.9,        11.2,         4.4,         0.0,         0.0
"Line.S_1001933-DA2"    ,   2,      -102.4,       -40.7
"Line.S_1001933-DA3"    ,   1,       105.4,        41.9,        11.2,         4.4,         0.0,         0.0
"Line.S_1001933-DA3"    ,   2,      -102.4,       -40.7
"Line.S_1000198-DA1"    ,   1,         3.0,         1.3,         0.0,         0.0,         0.0,         0.0
"Line.S_1000198-DA1"    ,   2,        -3.0,        -1.3
"Line.S_1000548-DA1"    ,   1,        15.0,         6.3,         0.0,         0.0,         0.0,         0.0
"Line.S_1000548-DA1"    ,   2,       -14.9,        -6.3
"Line.S_1000069-DA1"    ,   1,        15.8,         6.7,         0.0,         0.0,         0.0,         0.0
"Line.S_1000069-DA1"    ,   2,       -15.7,        -6.6
"Line.S_1000069-DA2"    ,   1,        15.8,         6.7,         0.0,         0.0,         0.0,         0.0
"Line.S_1000069-DA2"    ,   2,       -15.7,        -6.6
"Line.S_1000069-DA3"    ,   1,        15.8,         6.7,         0.0,         0.0,         0.0,         0.0
"Line.S_1000069-DA3"    ,   2,       -15.7,        -6.6
"Line.S_1000069-DA4"    ,   1,        15.8,         6.7,         0.0,         0.0,         0.0,         0.0
"Line.S_1000069-DA4"    ,   2,       -15.7,        -6.6
"Line.S_1000069-DA5"    ,   1,        15.8,         6.7,         0.0,         0.0,         0.0,         0.0
"Line.S_1000069-DA5"    ,   2,       -15.7,        -6.6
"Line.S_1000069-DA6"    ,   1,        15.8,         6.7,         0.0,         0.0,         0.0,         0.0
"Line.S_1000069-DA6"    ,   2,       -15.7,        -6.6
"Line.S_1000531-DA1"    ,   1,         2.0,         0.9,         0.0,         0.0,         0.0,         0.0
"Line.S_1000531-DA1"    ,   2,        -2.0,        -0.9
"Line.S_1000531-DA2"    ,   1,         2.0,         0.9,         0.0,         0.0,         0.0,         0.0
"Line.S_1000531-DA2"    ,   2,        -2.0,        -0.9
"Line.S_1000531-DA3"    ,   1,         2.0,         0.9,         0.0,         0.0,         0.0,         0.0
"Line.S_1000531-DA3"    ,   2,        -2.0,        -0.9
"Line.S_1000531-DA4"    ,   1,         2.0,         0.9,         0.0,         0.0,         0.0,         0.0
"Line.S_1000531-DA4"    ,   2,        -2.0,        -0.9
"Line.S_1000531-DA5"    ,   1,         2.0,         0.9,         0.0,         0.0,         0.0,         0.0
"Line.S_1000531-DA5"    ,   2,        -2.0,        -0.9
"Line.S_1000531-DA6"    ,   1,         2.0,         0.9,         0.0,         0.0,         0.0,         0.0
"Line.S_1000531-DA6"    ,   2,        -2.0,        -0.9
"Line.S_1000531-DA7"    ,   1,         2.0,         0.9,         0.0,         0.0,         0.0,         0.0
"Line.S_1000531-DA7"    ,   2,        -2.0,        -0.9
"Line.S_1000531-DA8"    ,   1,         2.0,         0.9,         0.0,         0.0,         0.0,         0.0
"Line.S_1000531-DA8"    ,   2,        -2.0,        -0.9
"Line.S_1000531-DA9"    ,   1,         2.0,         0.9,         0.0,         0.0,         0.0,         0.0
"Line.S_1000531-DA9"    ,   2,        -2.0,        -0.9
"Line.S_1000531-DA10"   ,   1,         2.0,         0.9,         0.0,         0.0,         0.0,         0.0
"Line.S_1000531-DA10"   ,   2,        -2.0,        -0.9
"Line.S_1000531-DA11"   ,   1,         2.0,         0.9,         0.0,         0.0,         0.0,         0.0
"Line.S_1000531-DA11"   ,   2,        -2.0,        -0.9
"Line.S_1000533-DA1"    ,   1,         2.0,         0.9,         0.0,         0.0,         0.0,         0.0
"Line.S_1000533-DA1"    ,   2,        -2.0,        -0.9
"Line.S_1000533-DA2"    ,   1,         2.0,         0.9,         0.0,         0.0,         0.0,         0.0
"Line.S_1000533-DA2"    ,   2,        -2.0,        -0.9
"Line.S_1000533-DA3"    ,   1,         2.0,         0.9,         0.0,         0.0,         0.0,         0.0
"Line.S_1000533-DA3"    ,   2,        -2.0,        -0.9
"Line.S_1000533-DA4"    ,   1,         2.0,         0.9,         0.0,         0.0,         0.0,         0.0
"Line.S_1000533-DA4"    ,   2,        -2.0,        -0.9
...